19

P         -0.01518       -0.12422       -1.08314
C         -1.40989       -0.90165       -0.07737
C          1.51004       -1.04919       -0.46286
C          0.19906        1.59827       -0.30732
C         -3.97692       -2.42187        0.10139
C         -2.64033       -3.05362        0.51144
C         -1.45650       -2.43410       -0.25006
C          1.77503       -1.06127        1.05371
C          2.99177       -1.93426        1.40463
C          4.24391       -1.47771        0.64330
C          3.99191       -1.44678       -0.87057
C          2.77003       -0.58277       -1.22343
C         -0.31110        1.81694        1.13179
C          0.02114        3.23215        1.63465
C         -0.54820        4.30769        0.70006
C         -0.06141        4.09938       -0.74020
C         -0.37694        2.68273       -1.24531
C         -2.75976       -0.28285       -0.50225
C         -3.93777       -0.89734        0.26900
