119
L2Ni(benzaldehyde): PCy3 (Opt: B3LYP-D3/6-31G(d,p) and SDD for Ni with SMD Solvation Model (Benzene))
Ni     0.098742    -0.663633     0.623041
O    -0.081008    -2.333102     1.451960
P    -2.004032    -0.643443    -0.174079
P     1.333752     1.092868     0.212455
C    -2.179170    -1.873602    -1.583409
C    -1.224161    -1.446077    -2.719419
C    -1.207576    -2.446932    -3.882838
C    -0.857351    -3.855614    -3.388464
C    -1.841224    -4.301740    -2.299842
C    -1.877953    -3.315045    -1.122426
C    -3.078466    -1.351043     1.184986
C    -4.580399    -1.511832     0.893335
C    -5.275435    -2.293455     2.021387
C    -5.042484    -1.630810     3.387015
C    -3.543640    -1.453496     3.671710
C    -2.844298    -0.668902     2.550479
C    -2.802962     0.917037    -0.853901
C    -4.043183     0.773504    -1.760300
C    -4.463416     2.138876    -2.332890
C    -4.709288     3.173146    -1.225843
C    -3.483160     3.306929    -0.311969
C    -3.071717     1.944551     0.265162
C     0.594248     2.472021    -0.854074
C     1.176139     3.895959    -0.719579
C     0.370421     4.905471    -1.556708
C     0.283228     4.492534    -3.031520
C    -0.289394     3.075967    -3.168133
C     0.523899     2.069024    -2.341106
C     1.796624     2.028771     1.773288
C     2.751100     1.252348     2.699418
C     3.048780     2.042501     3.983938
C     1.759123     2.408832     4.730681
C     0.799179     3.184250     3.818620
C     0.503091     2.406025     2.528168
C     2.977585     0.586546    -0.526099
C     2.814548    -0.396541    -1.706657
C     4.174818    -0.971261    -2.129934
C     5.178001     0.142074    -2.464209
C     5.334281     1.115755    -1.287169
C     3.977289     1.705882    -0.867691
C     2.330043    -2.588326     1.170734
C     2.206523    -3.511795     0.116332
C     3.325211    -4.164665    -0.396763
C     4.597149    -3.915401     0.130825
C     4.734048    -2.999390     1.178146
C     3.613898    -2.345875     1.692307
H    -3.209756    -1.843085    -1.959255
H    -1.495532    -0.450292    -3.090067
H    -0.210698    -1.362001    -2.303421
H    -2.196048    -2.466301    -4.364340
H    -0.491933    -2.114769    -4.645095
H    -0.857758    -4.567907    -4.222508
H     0.161914    -3.848407    -2.975757
H    -2.846367    -4.383476    -2.739170
H    -1.578702    -5.300537    -1.930304
H    -2.635372    -3.645293    -0.403502
H    -0.923372    -3.326303    -0.585491
H    -2.635029    -2.349332     1.284698
H    -5.046260    -0.521580     0.809792
H    -4.738725    -2.017422    -0.066526
H    -6.349676    -2.376697     1.814225
H    -4.877478    -3.317886     2.043976
H    -5.529628    -0.644527     3.394590
H    -5.515922    -2.220526     4.181519
H    -3.395687    -0.945293     4.632727
H    -3.071326    -2.441755     3.760879
H    -3.229463     0.357428     2.539340
H    -1.767884    -0.612331     2.742678
H    -2.001156     1.326280    -1.479993
H    -3.841223     0.085438    -2.587141
H    -4.877589     0.348000    -1.191669
H    -3.669956     2.505686    -2.999583
H    -5.361403     2.020974    -2.951687
H    -4.968903     4.144942    -1.662856
H    -5.573179     2.857464    -0.623319
H    -2.645992     3.723483    -0.888495
H    -3.686366     4.012635     0.502802
H    -2.189846     2.048814     0.907792
H    -3.882797     1.576924     0.905113
H    -0.436261     2.513817    -0.480582
H     1.170524     4.223995     0.323864
H     2.221589     3.907198    -1.048150
H    -0.645321     4.979749    -1.142870
H     0.818676     5.902317    -1.463712
H    -0.327133     5.209788    -3.593513
H     1.289345     4.518679    -3.474281
H    -1.332270     3.074546    -2.823806
H    -0.305460     2.766056    -4.220295
H     0.105478     1.063164    -2.442338
H     1.539506     2.029071    -2.751482
H     2.309223     2.951120     1.474789
H     2.295118     0.292853     2.962428
H     3.689707     1.025895     2.182640
H     3.713065     1.457561     4.631813
H     3.591679     2.963430     3.726019
H     1.265990     1.486786     5.070500
H     1.989620     2.993635     5.629432
H    -0.138101     3.403018     4.344819
H     1.249343     4.153794     3.560376
H    -0.038857     1.480564     2.768757
H    -0.161280     2.995018     1.884669
H     3.404301    -0.008563     0.292031
H     2.136831    -1.205235    -1.415098
H     2.360713     0.110189    -2.564654
H     4.570448    -1.585511    -1.313344
H     4.043762    -1.640281    -2.989503
H     6.150530    -0.288526    -2.732594
H     4.826166     0.698730    -3.345506
H     5.771941     0.580905    -0.432233
H     6.030516     1.923432    -1.545504
H     4.109248     2.383148    -0.015834
H     3.584646     2.310870    -1.694432
H     1.217114    -3.710138    -0.281317
H     3.206027    -4.877592    -1.209106
H     5.467929    -4.427868    -0.268289
H     5.715743    -2.798542     1.600145
H     3.727191    -1.645097     2.515938
C     1.143235    -1.902954     1.740055
H     1.306189    -1.518665     2.759937
