34
Free Ligand: PPh3 (Opt: B3LYP-D3/6-31g(d,p) with SMD Solvation Model (Benzene))       
P    -0.000040     0.000134    -1.246191
C     0.212856    -1.648927    -0.430586
C     1.321653     1.008806    -0.430323
C    -1.534652     0.640213    -0.430550
C     0.664538    -4.190871     0.685097
C    -0.252559    -3.318314     1.273600
C    -0.475710    -2.054759     0.722735
C     2.013855     0.617145     0.725741
C     2.996607     1.441820     1.276967
C     3.297324     2.670307     0.686054
C     2.615044     3.070149    -0.465187
C     1.641370     2.241821    -1.022872
C    -1.541816     1.437451     0.724147
C    -2.747561     1.876189     1.275034
C    -3.961739     1.520434     0.685140
C    -3.966626     0.727610    -0.464726
C    -2.762299     0.298561    -1.022098
C     1.124415    -2.540233    -1.020798
C     1.355314    -3.797641    -0.463378
H     0.836679    -5.173263     1.115571
H    -0.794883    -3.619141     2.165799
H    -1.187309    -1.383585     1.192817
H     1.785612    -0.333153     1.197622
H     3.525384     1.123911     2.171374
H     4.062046     3.310292     1.116931
H     2.847025     4.022399    -0.933848
H     1.124091     2.554590    -1.926689
H    -0.604780     1.716440     1.195266
H    -2.736775     2.494606     2.168378
H    -4.898499     1.862659     1.115707
H    -4.907234     0.450718    -0.932509
H    -2.774432    -0.307309    -1.924919
H     1.656647    -2.246853    -1.922446
H     2.066941    -4.472877    -0.930154